[TITLE]
;Fichero creado automáticamente con la herramienta "Data export to SWMM (inp)"
;Creado por David Erill, Carlos López Quintanilla y Xavier Torret
;Version 1.0
;Agosto-2011

[OPTIONS]
FLOW_UNITS CMS


[SUBCATCHMENTS]
;;                                         Área             Porcent.         Anchura          Pend.            Longitud  
;;Nombre         Pluviómetro  Salida       Total            Imperm.          Width            Porcent.         Cuneta      
;;-------------- ------------ ------------ ---------------- ---------------- ---------------- ---------------- --------- 
S82                                        0.564237         0.9                                                                 
S86                                        0.15944          0.9                                                                 
S123                                       0.130375         0.9                                                                 
S80                                        0.491906         0.9                                                                 
S94                                        0.407746         0.9                                                                 
S38                                        0.347967         0.9                                                                 
S74                                        0.210345         0.9                                                                 
S66                                        0.096058         0.9                                                                 
S30                                        0.295895         0.9                                                                 
S76                                        0.204544         0.9                                                                 
S73                                        0.497497         0.9                                                                 
S99                                        0.301908         0.9                                                                 
S45                                        0.119668         0.9                                                                 
S97                                        0.450753         0.9                                                                 
S126                                       0.30978          0.9                                                                 
S54                                        0.328662         0.9                                                                 
S233                                       0.188038         0.9                                                                 
S81                                        0.214471         0.9                                                                 
S115                                       0.130505         0.9                                                                 
S108                                       0.508687         0.9                                                                 
S118                                       0.339122         0.9                                                                 
S130                                       0.299609         0.9                                                                 
S116                                       0.111764         0.9                                                                 
S117                                       0.267865         0.9                                                                 
S49                                        0.248776         0.9                                                                 
S53                                        0.296098         0.9                                                                 
S100                                       0.231212         0.9                                                                 
S96                                        0.265398         0.9                                                                 
S46                                        0.127353         0.9                                                                 
S122                                       0.188566         0.75                                                                
S83                                        0.311324         0.9                                                                 
S42                                        0.305802         0.9                                                                 
S131                                       0.324343         0.9                                                                 
S84                                        0.43806          0.9                                                                 
S102                                       0.46179          0.9                                                                 
S44                                        0.168557         0.9                                                                 
S98                                        0.479067         0.9                                                                 
S72                                        0.214087         0.9                                                                 
S85                                        0.181098         0.9                                                                 
S34                                        0.131316         0.9                                                                 
S107                                       0.47557          0.9                                                                 
S55                                        0.368615         0.65                                                                
S104                                       0.284283         0.75                                                                
S70                                        0.200705         0.9                                                                 
S120                                       0.115603         0.9                                                                 
S37                                        0.364029         0.9                                                                 
S64                                        0.389672         0.9                                                                 
S92                                        0.289867         0.75                                                                
S109                                       0.480734         0.9                                                                 
S90                                        0.262195         0.75                                                                
S114                                       0.198306         0.65                                                                
S124                                       0.238701         0.9                                                                 
S61                                        0.44693          0.9                                                                 
S88                                        0.245666         0.9                                                                 
S111                                       0.287251         0.9                                                                 
S65                                        0.236537         0.9                                                                 
S52                                        0.436783         0.9                                                                 
S57                                        0.349293         0.9                                                                 
S71                                        0.340331         0.9                                                                 
S41                                        0.45032          0.9                                                                 
S95                                        0.207788         0.9                                                                 
S36                                        0.203814         0.9                                                                 
S127                                       0.309059         0.9                                                                 
S68                                        0.479874         0.9                                                                 
S67                                        0.282427         0.9                                                                 
S58                                        0.292487         0.9                                                                 
S62                                        0.301836         0.9                                                                 
S128                                       0.304227         0.9                                                                 
S56                                        0.207522         0.65                                                                
S129                                       0.305568         0.9                                                                 
S87                                        0.199993         0.9                                                                 
S110                                       0.482741         0.9                                                                 
S60                                        0.213486         0.9                                                                 
S63                                        0.347671         0.75                                                                
S51                                        0.363703         0.9                                                                 
S113                                       0.093449         0.9                                                                 
S40                                        0.221029         0.75                                                                
S89                                        0.225026         0.9                                                                 
S125                                       0.181577         0.9                                                                 
S106                                       0.329928         0.9                                                                 
S29                                        0.275643         0.9                                                                 
S75                                        0.158723         0.9                                                                 
S69                                        0.388793         0.9                                                                 
S35                                        0.247223         0.9                                                                 
S119                                       0.284529         0.9                                                                 
S39                                        0.189758         0.9                                                                 
S79                                        0.433624         0.9                                                                 
S78                                        0.248021         0.75                                                                
S47                                        0.092237         0.9                                                                 
S77                                        0.315027         0.9                                                                 
S132                                       0.254653         0.9                                                                 
S112                                       0.193824         0.9                                                                 
S43                                        0.142615         0.9                                                                 
S105                                       0.307728         0.9                                                                 
S91                                        0.264232         0.75                                                                
S50                                        0.169513         0.9                                                                 
S101                                       0.40051          0.9                                                                 
S121                                       0.209377         0.75                                                                
S32                                        0.179721         0.9                                                                 
S48                                        0.182975         0.9                                                                 
S33                                        0.219874         0.9                                                                 
S31                                        0.121294         0.9                                                                 
S93                                        0.199958         0.9                                                                 
S59                                        0.285528         0.9                                                                 
S234                                       0.088399         0.9                                                                 
S01E                                       35.849368        0.3                                                                 
S02E                                       12.46973         0.3                                                                 


[JUNCTIONS]
;;               Cota del         Prof.            Profundidad  Pression     Area de
;;Nombre         Fondo            Máxima           inicial      addicional   inundacion (m³)
;;-------------- ---------------- ---------------- ------------ ------------ ------------
                                                                                          
                                                                                          
                                                                                          
                                                                                          
                                                                                          
                                                                                          
                                                                                          
                                                                                          
                                                                                          
                                                                                          
                                                                                          
                                                                                          
                                                                                          
                                                                                          
                                                                                          
                                                                                          
                                                                                          
                                                                                          
                                                                                          
                                                                                          
                                                                                          
                                                                                          
                                                                                          
                                                                                          
                                                                                          
                                                                                          
                                                                                          
                                                                                          
                                                                                          
                                                                                          
                                                                                          
                                                                                          
                                                                                          
                                                                                          
                                                                                          
                                                                                          
                                                                                          
                                                                                          
                                                                                          
                                                                                          
                                                                                          
                                                                                          
                                                                                          
                                                                                          
                                                                                          
                                                                                          
                                                                                          
                                                                                          
                                                                                          
                                                                                          
                                                                                          
                                                                                          
                                                                                          
                                                                                          
                                                                                          
                                                                                          
                                                                                          
                                                                                          
                                                                                          
                                                                                          
                                                                                          
                                                                                          
                                                                                          
                                                                                          
                                                                                          
                                                                                          
                                                                                          
                                                                                          
                                                                                          
                                                                                          
                                                                                          
                                                                                          
                                                                                          
                                                                                          
                                                                                          
                                                                                          
                                                                                          
                                                                                          
                                                                                          
                                                                                          
                                                                                          
                                                                                          
                                                                                          
                                                                                          
                                                                                          
                                                                                          
                                                                                          
                                                                                          
                                                                                          
                                                                                          
                                                                                          
                                                                                          
                                                                                          
                                                                                          
                                                                                          
                                                                                          
                                                                                          
                                                                                          
                                                                                          
                                                                                          
                                                                                          
                                                                                          
                                                                                          
                                                                                          
                                                                                          

 
[OUTFALLS]
;;               Cota del     Tipo de          
;;Nombre         Fondo        Vertido
;;-------------- ------------ ------------


[CONDUITS]
;;               Nudo             Nudo                              Coef. n          Desnivel         Desnivel         Caudal ini.
;;Nombre         Entrada          Salida           Longitud         Manning          Entrada          Salida           modelado 
;;-------------- ---------------- ---------------- ---------------- ---------------- ---------------- ---------------- ----------


[XSECTIONS]
;;
;;Línea          Forma            Geom1            Geom2            Geom3            Geom4     
;;-------------- ---------------- ---------------- ---------------- ---------------- ----------------


[COORDINATES]
;;
;;Nudo           Coordenada X     Coordenada Y      
;;-------------- ---------------- ----------------
                 418959.416428    4577128.60533    
                 418946.604581    4577058.34806    
                 418945.602425    4577018.43112    
                 418944.846219    4576978.47652    
                 418943.738901    4576938.52309    
                 418942.840868    4576898.58413    
                 419075.707624    4576872.19854    
                 419112.946132    4576864.72234    
                 419219.082565    4576843.37569    
                 419257.910457    4576835.68829    
                 419295.759379    4576828.06909    
                 419330.41378     4576825.46775    
                 419375.289531    4576828.80946    
                 419415.083889    4576832.86027    
                 419454.878248    4576836.91107    
                 419483.400882    4576812.56545    
                 419511.753027    4576787.15216    
                 418941.659212    4576858.60159    
                 418940.477556    4576818.61905    
                 418939.2959      4576778.6365     
                 418938.114244    4576738.65396    
                 418946.628996    4576693.57697    
                 418987.147799    4576890.71674    
                 419031.217234    4576881.42545    
                 418985.02369     4577011.65145    
                 419024.444954    4577004.87178    
                 419048.616207    4577042.76882    
                 419073.345386    4577080.2936     
                 419063.581486    4576996.60548    
                 419102.718019    4576988.33917    
                 419135.572031    4576980.54452    
                 419162.570811    4577022.61321    
                 419127.860702    4576941.29487    
                 419120.149372    4576902.04521    
                 419147.155019    4576857.32287    
                 419181.456869    4576850.43431    
                 418980.058677    4576671.61208    
                 419013.488358    4576649.64719    
                 419045.001728    4576773.30349    
                 419086.930584    4576746.04668    
                 419003.438773    4576801.07939    
                 418961.889462    4576828.89404    
                 419067.779413    4576832.99212    
                 419057.834875    4576783.99104    
                 419060.274758    4576703.74458    
                 419032.690475    4576662.04198    
                 419151.997885    4576558.42237    
                 419047.838082    4576626.35888    
                 419081.070724    4576604.12979    
                 419114.215574    4576581.76525    
                 419175.721512    4576590.62779    
                 419203.797579    4576631.95406    
                 419219.910366    4576673.92548    
                 419157.687783    4576709.84065    
                 419211.359268    4576804.12839    
                 419202.98944     4576765.01387    
                 419194.899107    4576725.76236    
                 419196.767884    4576701.5446     
                 419236.322595    4576695.59273    
                 419304.306225    4576692.50132    
                 419270.341323    4576694.0458     
                 419176.806326    4576527.04497    
                 419200.572936    4576494.87125    
                 419225.075388    4576463.25432    
                 419301.930998    4576652.57191    
                 419292.963097    4576449.90015    
                 419332.939171    4576470.45722    
                 419294.451711    4576484.63526    
                 419296.823327    4576534.57898    
                 419298.368093    4576574.54914    
                 419300.279213    4576614.50346    
                 419366.498948    4576491.98822    
                 419305.662451    4576732.47833    
                 419307.469938    4576772.43747    
                 419314.805144    4576858.81939    
                 419323.039504    4576908.13669    
                 419484.452315    4576757.9174     
                 419458.241845    4576727.70132    
                 419428.300606    4576701.17733    
                 419398.105152    4576674.9431     
                 419364.255868    4576645.29136    
                 419023.125953    4577142.28184    
                 419056.419239    4577120.11075    
                 419089.712525    4577097.93966    
                 419123.005811    4577075.76858    
                 419156.299097    4577053.59749    
                 419189.592384    4577031.4264     
                 419222.88567     4577009.25532    
                 419256.178956    4576987.08423    
                 419289.472242    4576964.91314    
                 419322.765528    4576942.74205    
                 419356.058814    4576920.57097    
                 419422.438278    4576865.90592    