[TITLE]
;Fichero creado automáticamente con la herramienta "Data export to SWMM (inp)"
;Creado por David Erill, Carlos López Quintanilla y Xavier Torret
;Version 1.0
;Agosto-2011

[OPTIONS]
FLOW_UNITS CMS


[SUBCATCHMENTS]
;;                                         Área             Porcent.         Anchura          Pend.            Longitud  
;;Nombre         Pluviómetro  Salida       Total            Imperm.          Width            Porcent.         Cuneta      
;;-------------- ------------ ------------ ---------------- ---------------- ---------------- ---------------- --------- 
0100069          RG1          0100069      0.0964552135789  0.899999976158   20.0948143005    0.019999999553   143.57120244     
0100025          RG1          0100025      0.189167061393   0.899999976158   34.6037254333    0.019999999553   163.924386231    
0100014          RG1          0100014      0.139672853539   0.899999976158   27.9345817566    0.019999999553   149.788764031    
0100039          RG1          0100039      0.201501987035   0.899999976158   31.9844760895    0.019999999553   188.854902358    
0100063          RG1          0100063      0.146017629724   0.899999976158   26.5486545563    0.019999999553   165.388174777    
0100059          RG1          0100059      0.166883273397   0.899999976158   30.3424301147    0.019999999553   164.675814008    
0100016          RG1          0100016      0.183439660646   0.899999976158   32.7570877075    0.019999999553   168.464672558    
0100081          RG1          0100081      0.226828289371   0.899999976158   34.3679199219    0.019999999553   198.167802973    
0100043          RG1          0100043      0.165624639662   0.899999976158   29.5758399963    0.019999999553   167.716951711    
0100085          RG1          0100085      0.141291678212   0.899999976158   26.9984035492    0.019999999553   157.035816427    
0100067          RG1          0100067      0.0977179134649  0.899999976158   17.984872818     0.019999999553   162.637738346    
0100066          RG1          0100066      0.172255924475   0.899999976158   29.3617973328    0.019999999553   175.636853266    
0100065          RG1          0100065      0.285847192894   0.899999976158   38.4547767639    0.019999999553   223.146784762    
0100102          RG1          0100102      0.323332362371   0.899999976158   40.585647583     0.019999999553   238.956120196    
0100070          RG1          0100070      0.0356709930716  0.899999976158   12.1606063843    0.019999999553   88.3931470535    
0100104          RG1          0100104      0.0985528306001  0.899999976158   22.0640583038    0.019999999553   133.764670814    
0100068          RG1          0100068      0.134389242006   0.899999976158   26.1797180176    0.019999999553   153.563940447    
0100079          RG1          0100079      0.28199994176    0.899999976158   37.4336204529    0.019999999553   226.429159645    
0100047          RG1          0100047      0.163047958432   0.899999976158   30.7637882233    0.019999999553   159.422981324    
0100093          RG1          0100093      0.0180046008296  0.899999976158   8.71193218231    0.019999999553   62.3292779287    
0100010          RG1          0100010      0.0690019546498  0.899999976158   18.6491508484    0.019999999553   111.413760992    
0100096          RG1          0100096      0.0715549305745  0.899999976158   17.7408752441    0.019999999553   120.961134687    
0100092          RG1          0100092      0.0228985529621  0.899999976158   10.9040594101    0.019999999553   63.3515119289    
0100110          RG1          0100110      0.0285507341792  0.899999976158   7.93076324463    0.019999999553   108.175898794    
0100008          RG1          0100008      0.0139542359683  0.899999976158   7.34433841705    0.019999999553   57.417741039     
0100007          RG1          0100007      0.00490318945039 0.899999976158   5.07229185104    0.019999999553   29.1031091378    
0100085b         RG1          0100085      2.48882920903    0.5              110.778747559    0.0799999982119  673.846456399    
0100074b         RG1          0100074      1.88622498247    0.5              97.9009475708    0.0799999982119  577.830609294    
0100055          RG1          0100055      0.140083879878   0.899999976158   28.2048015594    0.019999999553   148.618990773    
0100057          RG1          0100057      0.138346151618   0.899999976158   27.4859790802    0.019999999553   151.352797974    
0100056          RG1          0100056      0.0865661277957  0.899999976158   21.8233852386    0.019999999553   118.627010975    
0100060          RG1          0100060      0.228221958545   0.899999976158   32.6031341553    0.019999999553   210.040501806    
0100021          RG1          0100021      0.0966544617427  0.899999976158   24.36668396      0.019999999553   119.367890829    
0100020          RG1          0100020      0.0364815491064  0.899999976158   14.2135801315    0.019999999553   76.7882410355    
0100019          RG1          0100019      0.118473917511   0.899999976158   24.3439426422    0.019999999553   145.904181028    
0100058          RG1          0100058      0.0837812141247  0.899999976158   21.8559551239    0.019999999553   114.879429902    
0100045          RG1          0100045      0.115446021571   0.899999976158   24.9164085388    0.019999999553   139.437424073    
0100054          RG1          0100054      0.0794835678969  0.899999976158   18.6289787292    0.019999999553   127.688149137    
0100053          RG1          0100053      0.117056399988   0.899999976158   25.2639465332    0.019999999553   138.621618632    
0100018          RG1          0100018      0.244175033014   0.899999976158   39.38306427      0.019999999553   185.946377788    
0100062          RG1          0100062      0.107323079323   0.899999976158   21.4646053314    0.019999999553   150.039061379    
0100061          RG1          0100061      0.183285512762   0.899999976158   28.6383743286    0.019999999553   192.452291161    
0100100          RG1          0100100      0.132363542393   0.899999976158   28.7746925354    0.019999999553   137.530010075    
0100024          RG1          0100024      0.048476741649   0.899999976158   15.9813537598    0.019999999553   90.973755612     
0100023          RG1          0100023      0.0305643972292  0.899999976158   12.2257699966    0.019999999553   74.8856182914    
0100022          RG1          0100022      0.106436286487   0.899999976158   25.1424293518    0.019999999553   126.807881626    
0100084          RG1          0100084      0.162013714661   0.899999976158   30.7621021271    0.019999999553   157.969778187    
0100106          RG1          0100106      0.104172323361   0.899999976158   21.5529079437    0.019999999553   145.488428005    
0100077          RG1          0100077      0.166461717495   0.899999976158   31.4078769684    0.019999999553   158.965730754    
0100099          RG1          0100099      0.061013976407   0.899999976158   17.6001701355    0.019999999553   104.01412362     
0100064          RG1          0100064      0.218167815611   0.899999976158   33.9120826721    0.019999999553   192.970897695    
0100078          RG1          0100078      0.138444227517   0.899999976158   28.64361763      0.019999999553   145.213104132    
0100041          RG1          0100041      0.17983208393    0.899999976158   27.9531669617    0.019999999553   193.163844466    
0100040          RG1          0100040      0.167978276241   0.899999976158   26.6632041931    0.019999999553   189.269824317    
0100033          RG1          0100033      0.186226678599   0.899999976158   32.8635215759    0.019999999553   169.888268527    
0100038          RG1          0100038      0.205040310687   0.899999976158   35.5561447144    0.019999999553   172.570829692    
0100042          RG1          0100042      0.240568197058   0.899999976158   36.2665710449    0.019999999553   198.781748494    
0100037          RG1          0100037      0.251128954606   0.899999976158   39.8617286682    0.019999999553   189.01433515     
0100101          RG1          0100101      0.128802367656   0.899999976158   27.4047546387    0.019999999553   140.567552951    
0100032          RG1          0100032      0.107962455905   0.899999976158   25.3037223816    0.019999999553   127.515274957    
0100107          RG1          0100107      0.0857247421501  0.899999976158   21.2540683746    0.019999999553   120.786267308    
0100030          RG1          0100030      0.0873761646564  0.899999976158   22.0276126862    0.019999999553   118.682104698    
0100108          RG1          0100108      0.0730929042641  0.899999976158   20.1173095703    0.019999999553   109.220884381    
0100111          RG1          0100111      0.0322586706468  0.899999976158   13.0778245926    0.019999999553   73.7214695286    
0100029          RG1          0100029      0.157352373756   0.899999976158   28.6094875336    0.019999999553   164.784005859    
0100027          RG1          0100027      0.0943307229926  0.899999976158   20.3591747284    0.019999999553   139.419721858    
0100028          RG1          0100028      0.0612548626184  0.899999976158   17.6696872711    0.019999999553   104.00485835     
0100013          RG1          0100013      0.161729148522   0.899999976158   30.7080783844    0.019999999553   158.17256283     
0100012          RG1          0100012      0.0895917353673  0.899999976158   20.8352832794    0.019999999553   129.125855416    
0100011          RG1          0100011      0.118495379609   0.899999976158   25.7598781586    0.019999999553   138.486413261    
0100026          RG1          0100026      0.14563172944    0.899999976158   28.0060997009    0.019999999553   155.895311324    
0100095          RG1          0100095      0.023332787141   0.899999976158   8.43355369568    0.019999999553   83.0811914323    
0100083          RG1          0100083      0.0118745665932  0.899999976158   5.08912372589    0.019999999553   69.9887868847    
0100109          RG1          0100109      0.0512581130132  0.899999976158   17.4743614197    0.019999999553   88.2383885946    
0100015          RG1          0100015      0.202220128285   0.899999976158   34.08203125      0.019999999553   177.955194181    
0100009          RG1          0100009      0.0391572321476  0.899999976158   13.6594791412    0.019999999553   86.396572442     
0100094          RG1          0100094      0.0301080264398  0.899999976158   11.8847265244    0.019999999553   76.3496307724    
0100090          RG1          0100090      0.0350901684028  0.899999976158   12.3847541809    0.019999999553   85.0007831481    
0100091          RG1          0100091      0.0689790801698  0.899999976158   19.1608657837    0.019999999553   108.473742855    
0100089          RG1          0100089      0.0266878802802  0.899999976158   10.1346359253    0.019999999553   78.5998217438    
0100031          RG1          0100031      0.0650886550305  0.899999976158   18.5967617035    0.019999999553   105.356981629    
0100088          RG1          0100088      0.103625361445   0.899999976158   24.2872142792    0.019999999553   128.482101804    
0100086          RG1          0100086      0.0750615789992  0.899999976158   20.6591300964    0.019999999553   109.320549477    
0100087          RG1          0100087      0.0830073634784  0.899999976158   21.2839221954    0.019999999553   117.14334175     
0100036          RG1          0100036      0.0476074298672  0.899999976158   14.0021839142    0.019999999553   102.198919777    
0100074          RG1          0100074      0.132114625623   0.899999976158   28.1094932556    0.019999999553   141.005169625    
0100075          RG1          0100075      0.0502829006865  0.899999976158   16.3965797424    0.019999999553   91.9648670199    
0100076          RG1          0100076      0.0846954167838  0.899999976158   21.7167816162    0.019999999553   116.63380428     
0100035          RG1          0100035      0.112419705779   0.899999976158   25.9430274963    0.019999999553   130.425884433    
0100034          RG1          0100034      0.104457133051   0.899999976158   24.292345047     0.019999999553   128.557560409    
0100073          RG1          0100073      0.134636681442   0.899999976158   27.8558654785    0.019999999553   144.88864189     
0100044          RG1          0100044      0.0962810298377  0.899999976158   19.5164222717    0.019999999553   147.507578931    
0100072          RG1          0100072      0.0999276298823  0.899999976158   20.3933734894    0.019999999553   146.526933694    
0100071          RG1          0100071      0.155725083713   0.899999976158   21.9331111908    0.019999999553   213.474138401    
0100103          RG1          0100103      0.13512740586    0.899999976158   19.8716907501    0.019999999553   204.124179581    
0100080          RG1          0100080      0.236604598222   0.899999976158   35.6690483093    0.019999999553   199.184551602    
0100105          RG1          0100105      0.173470445036   0.899999976158   32.1241455078    0.019999999553   161.549867474    
0100051          RG1          0100051      0.143489205734   0.899999976158   28.6978340149    0.019999999553   150.426787953    
0100098          RG1          0100098      0.0365794873878  0.899999976158   12.7602977753    0.019999999553   85.8302509891    
0100050          RG1          0100050      0.0299239984242  0.899999976158   13.0104455948    0.019999999553   69.2812941078    
0100048          RG1          0100048      0.0764812508069  0.899999976158   21.2447967529    0.019999999553   108.11958721     
0100049          RG1          0100049      0.0363795166385  0.899999976158   12.9926605225    0.019999999553   84.3614836977    
0100046          RG1          0100046      0.0616099661197  0.899999976158   18.1205844879    0.019999999553   102.394487451    
0100017          RG1          0100017      0.0925963315712  0.899999976158   22.2231197357    0.019999999553   124.769126567    


[JUNCTIONS]
;;               Cota del         Prof.            Profundidad  Pression     Area de
;;Nombre         Fondo            Máxima           inicial      addicional   inundacion (m³)
;;-------------- ---------------- ---------------- ------------ ------------ ------------
0100097          163.149993896    1.52999997139    0.0          0.0          0.0          
0100001          160.839996338    1.60000002384    0.0          0.0          0.0          
0100002          152.160003662    1.98000001907    0.0          0.0          0.0          
0100003          152.430007935    1.75999999046    0.0          0.0          0.0          
0100004          152.220001221    1.75999999046    0.0          0.0          0.0          
0100005          151.550003052    2.42000007629    0.0          0.0          0.0          
0100006          151.160003662    2.30999994278    0.0          0.0          0.0          
0100009          151.36000061     2.01999998093    0.0          0.0          0.0          
0100010          152.279998779    1.76999998093    0.0          0.0          0.0          
0100096          154.490005493    4.90000009537    0.0          0.0          0.0          
0100083          155.070007324    4.84000015259    0.0          0.0          0.0          
0100095          155.0            4.71999979019    0.0          0.0          0.0          
0100094          156.549987793    3.84999990463    0.0          0.0          0.0          
0100093          157.080001831    3.40000009537    0.0          0.0          0.0          
0100092          158.100006104    2.97000002861    0.0          0.0          0.0          
0100091          160.409988403    3.09999990463    0.0          0.0          0.0          
0100090          162.960006714    3.6099998951     0.0          0.0          0.0          
0100030          164.930007935    1.70000004768    0.0          0.0          0.0          
0100089          165.770004272    3.25             0.0          0.0          0.0          
0100088          167.819992065    3.81999993324    0.0          0.0          0.0          
0100087          170.699996948    3.41000008583    0.0          0.0          0.0          
0100086          173.189987183    3.24000000954    0.0          0.0          0.0          
0100032          176.810012817    2.93000006676    0.0          0.0          0.0          
0100031          176.169998169    4.17000007629    0.0          0.0          0.0          
0100078          173.770004272    2.58999991417    0.0          0.0          0.0          
0100026          165.800003052    2.27999997139    0.0          0.0          0.0          
0100025          159.349990845    2.88000011444    0.0          0.0          0.0          
0100011          153.169998169    2.08999991417    0.0          0.0          0.0          
0100007          151.089996338    1.65999996662    0.0          0.0          0.0          
0100008          150.880004883    1.87000000477    0.0          0.0          0.0          
0100014          154.290008545    1.59000003338    0.0          0.0          0.0          
0100012          157.13999939     2.90000009537    0.0          0.0          0.0          
0100013          160.319992065    2.84999990463    0.0          0.0          0.0          
0100034          180.399993896    3.69000005722    0.0          0.0          0.0          
0100035          184.63999939     3.94000005722    0.0          0.0          0.0          
0100036          188.600006104    3.40000009537    0.0          0.0          0.0          
0100101          190.449996948    1.29999995232    0.0          0.0          0.0          
0100076          194.120010376    2.93000006676    0.0          0.0          0.0          
0100075          197.080001831    2.03999996185    0.0          0.0          0.0          
0100074          198.13999939     2.15000009537    0.0          0.0          0.0          
0100073          197.800003052    2.1099998951     0.0          0.0          0.0          
0100037          189.0            1.30999994278    0.0          0.0          0.0          
0100038          183.380004883    1.92999994755    0.0          0.0          0.0          
0100033          179.479995728    2.24000000954    0.0          0.0          0.0          
0100039          181.900009155    1.89999997616    0.0          0.0          0.0          
0100040          183.729995728    2.55999994278    0.0          0.0          0.0          
0100041          186.150009155    3.36999988556    0.0          0.0          0.0          
0100042          189.869995117    2.99000000954    0.0          0.0          0.0          
0100085          197.559997559    2.20000004768    0.0          0.0          0.0          
0100043          200.559997559    2.72000002861    0.0          0.0          0.0          
0100044          203.0            2.27999997139    0.0          0.0          0.0          
0100072          202.340011597    2.78999996185    0.0          0.0          0.0          
0100071          194.339996338    2.46000003815    0.0          0.0          0.0          
0100102          194.050003052    2.25             0.0          0.0          0.0          
0100065          183.279998779    2.07999992371    0.0          0.0          0.0          
0100066          186.210006714    1.88999998569    0.0          0.0          0.0          
0100067          187.520004272    1.70000004768    0.0          0.0          0.0          
0100103          187.770004272    1.52999997139    0.0          0.0          0.0          
0100105          180.300003052    2.95000004768    0.0          0.0          0.0          
0100068          181.430007935    1.50999999046    0.0          0.0          0.0          
0100069          181.850006104    1.30999994278    0.0          0.0          0.0          
0100104          183.580001831    1.62000000477    0.0          0.0          0.0          
0100070          182.159988403    2.46000003815    0.0          0.0          0.0          
0100064          178.060012817    1.92999994755    0.0          0.0          0.0          
0100063          173.13999939     3.02999997139    0.0          0.0          0.0          
0100099          174.150009155    1.64999997616    0.0          0.0          0.0          
0100077          175.230010986    1.39999997616    0.0          0.0          0.0          
0100106          175.059997559    1.44000005722    0.0          0.0          0.0          
0100084          169.569992065    1.44000005722    0.0          0.0          0.0          
0100022          167.770004272    1.66999995708    0.0          0.0          0.0          
0100028          165.089996338    1.79999995232    0.0          0.0          0.0          
0100027          163.88999939     1.63999998569    0.0          0.0          0.0          
0100029          162.949996948    1.54999995232    0.0          0.0          0.0          
0100018          162.470001221    2.11999988556    0.0          0.0          0.0          
0100053          160.309997559    3.1400001049     0.0          0.0          0.0          
0100054          158.119995117    4.25             0.0          0.0          0.0          
0100045          158.470001221    5.0              0.0          0.0          0.0          
0100058          159.819992065    2.82999992371    0.0          0.0          0.0          
0100059          161.150009155    1.87000000477    0.0          0.0          0.0          
0100019          164.309997559    2.86999988556    0.0          0.0          0.0          
0100020          164.880004883    2.72000002861    0.0          0.0          0.0          
0100111          165.699996948    1.10000002384    0.0          0.0          0.0          
0100107          166.130004883    1.5              0.0          0.0          0.0          
0100021          165.5            2.57999992371    0.0          0.0          0.0          
0100023          166.669998169    1.60000002384    0.0          0.0          0.0          
0100024          167.050003052    2.42000007629    0.0          0.0          0.0          
0100100          168.259994507    1.26999998093    0.0          0.0          0.0          
0100060          166.979995728    2.79999995232    0.0          0.0          0.0          
0100061          171.650009155    3.40000009537    0.0          0.0          0.0          
0100062          171.61000061     3.43000006676    0.0          0.0          0.0          
0100056          165.88999939     2.31999993324    0.0          0.0          0.0          
0100057          166.089996338    2.54999995232    0.0          0.0          0.0          
0100055          164.729995728    1.83000004292    0.0          0.0          0.0          
0100047          163.240005493    3.47000002861    0.0          0.0          0.0          
0100046          162.0            2.0              0.0          0.0          0.0          
0100048          163.259994507    1.04999995232    0.0          0.0          0.0          
0100081          167.670013428    2.40000009537    0.0          0.0          0.0          
0100079          169.380004883    2.95000004768    0.0          0.0          0.0          
0100080          177.089996338    2.95000004768    0.0          0.0          0.0          
0100049          163.910003662    0.689999997616   0.0          0.0          0.0          
0100050          164.179992676    0.5              0.0          0.0          0.0          
0100098          164.179992676    0.879999995232   0.0          0.0          0.0          
0100051          164.150009155    2.00999999046    0.0          0.0          0.0          
0100017          153.25           4.03999996185    0.0          0.0          0.0          
0100016          157.309997559    2.20000004768    0.0          0.0          0.0          
0100015          158.920013428    1.64999997616    0.0          0.0          0.0          
0100110          149.0            4.0              0.0          0.0          0.0          
0100082          146.080001831    2.00999999046    0.0          0.0          0.0          
0100108          156.320007324    3.68000006676    0.0          0.0          0.0          
0100109          151.800003052    1.79999995232    0.0          0.0          0.0          

 
[OUTFALLS]
;;               Cota del     Tipo de          
;;Nombre         Fondo        Vertido
;;-------------- ------------ ------------


[CONDUITS]
;;               Nudo             Nudo                              Coef. n          Desnivel         Desnivel         Caudal ini.
;;Nombre         Entrada          Salida           Longitud         Manning          Entrada          Salida           modelado 
;;-------------- ---------------- ---------------- ---------------- ---------------- ---------------- ---------------- ----------
01009008         0100009          0100008          14.6818419691    0.0130000002682  0.019999999553   0.0                         
01018013         0100018          0100013          66.5609144847    0.0130000002682  0.209999993443   0.15000000596               
01013012         0100013          0100012          16.737917313     0.0130000002682  0.0              0.469999998808              
01012011         0100012          0100011          22.3094233234    0.0130000002682  0.0              0.189999997616              
01103067         0100103          0100067          12.8495685924    0.0130000002682  0.0              0.170000001788              
01105080         0100105          0100080          36.957960333     0.0130000002682  0.0              0.0                         
01080079         0100080          0100079          69.3285402781    0.0130000002682  0.0              0.870000004768              
01079081         0100079          0100081          26.2014265448    0.0130000002682  0.0              0.360000014305              
01081047         0100081          0100047          43.5948906759    0.0130000002682  0.0              0.97000002861               
01047045         0100047          0100045          45.3655862118    0.0130000002682  0.0              0.0                         
01045054         0100045          0100054          25.1646809836    0.0130000002682  0.0              0.00999999977648            
01108083         0100108          0100083          6.17151399546    0.0130000002682  0.0              1.15999996662               
01094095         0100094          0100095          16.8588125339    0.0130000002682  0.0              1.19000005722               
01107030         0100107          0100030          20.317659363     0.0130000002682  0.0              0.20000000298               
01065064         0100065          0100064          45.7733384629    0.0130000002682  0.310000002384   0.0                         
01111027         0100111          0100027          21.5989188858    0.0130000002682  0.0              0.540000021458              
01051047         0100051          0100047          54.7477960483    0.0130000002682  0.0              0.0                         
01049048         0100049          0100048          37.6594550282    0.0130000002682  0.0              0.0                         
01048046         0100048          0100046          23.2936253071    0.0130000002682  0.0              0.170000001788              
01046045         0100046          0100045          48.7647678128    0.0130000002682  0.0              0.019999999553              
01079057         0100079          0100057          79.162351304     0.0130000002682  0.910000026226   0.0                         
01056019         0100056          0100019          66.2382348565    0.0130000002682  0.0              0.15000000596               
01057056         0100057          0100056          7.88724261063    0.0130000002682  0.0              0.0                         
01061060         0100061          0100060          41.002490473     0.0130000002682  0.0              0.52999997139               
01060056         0100060          0100056          25.8351675247    0.0130000002682  0.0              0.0500000007451             
01080061         0100080          0100061          102.80456683     0.0130000002682  1.15999996662    0.0                         
01104070         0100104          0100070          15.3925036622    0.0130000002682  0.0              0.839999973774              
01028025         0100028          0100025          74.2091784689    0.0130000002682  0.0              0.00999999977648            
01027029         0100027          0100029          27.6069992822    0.0130000002682  0.0              0.019999999553              
01029096         0100029          0100096          84.2297703331    0.0130000002682  0.0              1.22000002861               
01011010         0100011          0100010          32.9874788563    0.0130000002682  0.0              0.0500000007451             
01059058         0100059          0100058          35.0395107069    0.0130000002682  0.0              0.259999990463              
01057055         0100057          0100055          33.4928120314    0.0130000002682  0.140000000596   0.0                         
01055045         0100055          0100045          43.1938275438    0.0130000002682  0.0              3.31999993324               
01062021         0100062          0100021          75.007870709     0.0130000002682  0.0              0.0                         
01068064         0100068          0100064          49.558551086     0.0130000002682  0.0              0.0                         
01064062         0100064          0100062          51.559945691     0.0130000002682  0.0              0.0                         
01066039         0100066          0100039          90.0404944657    0.0130000002682  0.0299999993294  0.0500000007451             
01065077         0100065          0100077          115.394215393    0.0130000002682  0.0              0.0                         